
**** 11/04/20 17:17:20 ****** PSpice Lite (October 2012) ****** ID# 10813 ****

 ** Profile: "SCHEMATIC1-tr"  [ F:\2) Second Year 2020-2021\Fall semester 2020-2021\EEE1024 Fundamentals of Electrical and Electronic


 ****     CIRCUIT DESCRIPTION


******************************************************************************




** Creating circuit file "tr.cir" 
** WARNING: THIS AUTOMATICALLY GENERATED FILE MAY BE OVERWRITTEN BY SUBSEQUENT SIMULATIONS

*Libraries: 
* Profile Libraries :
* Local Libraries :
* From [PSPICE NETLIST] section of C:\Users\Prashanth\AppData\Roaming\SPB_16.6\cdssetup\OrCAD_PSpice/16.6.0/PSpice.ini file:
.lib "nomd.lib" 

*Analysis directives: 
.TRAN  0 8us 0 
.OPTIONS ADVCONV
.PROBE64 V(alias(*)) I(alias(*)) W(alias(*)) D(alias(*)) NOISE(alias(*)) 
.INC "..\SCHEMATIC1.net" 



**** INCLUDING SCHEMATIC1.net ****
* source SAMPLE
X_U1A         N00206 N00289 N00309 $G_DPWR $G_DGND 7408 PARAMS:
+ IO_LEVEL=0 MNTYMXDLY=0
X_U2A         N00309 N00379 N00425 $G_DPWR $G_DGND 7432 PARAMS:
+ IO_LEVEL=0 MNTYMXDLY=0
U_A         STIM(1,1) $G_DPWR $G_DGND N00206 IO_STM IO_LEVEL=0 
+ 0 0
+ +2uS 1
+REPEAT FOREVER
+ +2us 0
+  +2uS 1
+ ENDREPEAT
U_B         STIM(1,1) $G_DPWR $G_DGND N00289 IO_STM IO_LEVEL=0 
+ 0 0
+ +1us 1
+REPEAT FOREVER
+ +1us 0
+  +1us 1
+ ENDREPEAT
U_C         STIM(1,1) $G_DPWR $G_DGND N00379 IO_STM IO_LEVEL=0 
+ 0 0
+ +.5uS 1
+REPEAT FOREVER
+ +.5uS 0
+  +.5uS 1
+ ENDREPEAT

**** RESUMING tr.cir ****
.END

**** 11/04/20 17:17:20 ****** PSpice Lite (October 2012) ****** ID# 10813 ****

 ** Profile: "SCHEMATIC1-tr"  [ F:\2) Second Year 2020-2021\Fall semester 2020-2021\EEE1024 Fundamentals of Electrical and Electronic


 ****     Digital Gate MODEL PARAMETERS


******************************************************************************




               D_08            D_32            
      TPLHMN    7.000000E-09    4.000000E-09 
      TPLHTY   17.500000E-09   10.000000E-09 
      TPLHMX   27.000000E-09   15.000000E-09 
      TPHLMN    4.800000E-09    5.600000E-09 
      TPHLTY   12.000000E-09   14.000000E-09 
      TPHLMX   19.000000E-09   22.000000E-09 


**** 11/04/20 17:17:20 ****** PSpice Lite (October 2012) ****** ID# 10813 ****

 ** Profile: "SCHEMATIC1-tr"  [ F:\2) Second Year 2020-2021\Fall semester 2020-2021\EEE1024 Fundamentals of Electrical and Electronic


 ****     Digital IO  MODEL PARAMETERS


******************************************************************************




               IO_STM          IO_STD          
        DRVL    0             104            
        DRVH    0              96.4          
       AtoD1                 AtoD_STD        
       AtoD2                 AtoD_STD_NX     
       AtoD3                 AtoD_STD        
       AtoD4                 AtoD_STD_NX     
       DtoA1 DtoA_STM        DtoA_STD        
       DtoA2 DtoA_STM        DtoA_STD        
       DtoA3 DtoA_STM        DtoA_STD        
       DtoA4 DtoA_STM        DtoA_STD        
      TSWHL1                    1.373000E-09 
      TSWHL2                    1.346000E-09 
      TSWHL3                    1.511000E-09 
      TSWHL4                    1.487000E-09 
      TSWLH1                    3.382000E-09 
      TSWLH2                    3.424000E-09 
      TSWLH3                    3.517000E-09 
      TSWLH4                    3.564000E-09 
       TPWRT  100.000000E+03  100.000000E+03 



          JOB CONCLUDED

**** 11/04/20 17:17:20 ****** PSpice Lite (October 2012) ****** ID# 10813 ****

 ** Profile: "SCHEMATIC1-tr"  [ F:\2) Second Year 2020-2021\Fall semester 2020-2021\EEE1024 Fundamentals of Electrical and Electronic


 ****     JOB STATISTICS SUMMARY


******************************************************************************



  Total job time                    =         .02
