
**** 10/29/20 23:13:35 ****** PSpice Lite (October 2012) ****** ID# 10813 ****

 ** Profile: "SCHEMATIC1-r2"  [ F:\2) Second Year 2020-2021\Fall semester 2020-2021\EEE1024 Fundamentals of Electrical and Electronic


 ****     CIRCUIT DESCRIPTION


******************************************************************************




** Creating circuit file "r2.cir" 
** WARNING: THIS AUTOMATICALLY GENERATED FILE MAY BE OVERWRITTEN BY SUBSEQUENT SIMULATIONS

*Libraries: 
* Profile Libraries :
* Local Libraries :
* From [PSPICE NETLIST] section of C:\Users\Prashanth\AppData\Roaming\SPB_16.6\cdssetup\OrCAD_PSpice/16.6.0/PSpice.ini file:
.lib "nomd.lib" 

*Analysis directives: 
.OPTIONS ADVCONV
.PROBE64 V(alias(*)) I(alias(*)) W(alias(*)) D(alias(*)) NOISE(alias(*)) 
.INC "..\SCHEMATIC1.net" 



**** INCLUDING SCHEMATIC1.net ****
* source THEVENIN AND MAXIMUM POWER TRANSFER-2
R_R5         N02698 N02690  5 TC=0,0 
R_R7         N02716 N02698  2 TC=0,0 
R_R2         N02706 N02698  8 TC=0,0 
R_R3         N02706 N02662  4 TC=0,0 
R_R4         N02662 N02690  3 TC=0,0 
R_R6         N02716 N02706  6 TC=0,0 
R_R1         N02716 N02706  1k TC=0,0 
V_V1         N03219 N02716 1Vdc
R_R8         N03219 N02698  6 TC=0,0 

**** RESUMING r2.cir ****
.END

ERROR(ORPSIM-15142): Node N02698 is floating

ERROR(ORPSIM-15142): Node N02690 is floating

ERROR(ORPSIM-15142): Node N02716 is floating

ERROR(ORPSIM-15142): Node N02706 is floating

ERROR(ORPSIM-15142): Node N02662 is floating

ERROR(ORPSIM-15142): Node N03219 is floating
