
**** 10/29/20 13:01:07 ****** PSpice Lite (October 2012) ****** ID# 10813 ****

 ** Profile: "SCHEMATIC1-e1"  [ F:\2) Second Year 2020-2021\Fall semester 2020-2021\EEE1024 Fundamentals of Electrical and Electronic


 ****     CIRCUIT DESCRIPTION


******************************************************************************




** Creating circuit file "e1.cir" 
** WARNING: THIS AUTOMATICALLY GENERATED FILE MAY BE OVERWRITTEN BY SUBSEQUENT SIMULATIONS

*Libraries: 
* Profile Libraries :
* Local Libraries :
* From [PSPICE NETLIST] section of C:\Users\Prashanth\AppData\Roaming\SPB_16.6\cdssetup\OrCAD_PSpice/16.6.0/PSpice.ini file:
.lib "nomd.lib" 

*Analysis directives: 
.TRAN  0 100ms 0 
.OPTIONS ADVCONV
.PROBE64 V(alias(*)) I(alias(*)) W(alias(*)) D(alias(*)) NOISE(alias(*)) 
.INC "..\SCHEMATIC1.net" 



**** INCLUDING SCHEMATIC1.net ****
* source DESIGN OF REGULATED POWER SUPPLY
D_D1         N00169 N00155 D1N4002 
D_D3         0 N00169 D1N4002 
D_D2         N00179 N00155 D1N4002 
D_D4         0 N00179 D1N4002 
D_D5         0 N00299 D1N750 
C_C1         0 N00299  470u  TC=0,0 
R_R1         N00155 N00299  330 TC=0,0 
R_R2         0 N00299  1k TC=0,0 
V_V1         N00169 N00179  AC 0
+SIN 0 30 50 0 0 0

**** RESUMING e1.cir ****
.END

**** 10/29/20 13:01:07 ****** PSpice Lite (October 2012) ****** ID# 10813 ****

 ** Profile: "SCHEMATIC1-e1"  [ F:\2) Second Year 2020-2021\Fall semester 2020-2021\EEE1024 Fundamentals of Electrical and Electronic


 ****     Diode MODEL PARAMETERS


******************************************************************************




               D1N4002         D1N750          
          IS   14.110000E-09  880.500000E-18 
           N    1.984                        
         ISR  100.000000E-12    1.859000E-09 
         IKF   94.81                         
          BV  100.1             4.7          
         IBV   10                .020245     
         NBV                    1.6989       
        IBVL                    1.955600E-03 
        NBVL                   14.976        
          RS     .03389          .25         
          TT    4.761000E-06                 
         CJO   51.170000E-12  175.000000E-12 
          VJ     .3905           .75         
           M     .2762           .5516       
        TBV1                  -21.277000E-06 


**** 10/29/20 13:01:07 ****** PSpice Lite (October 2012) ****** ID# 10813 ****

 ** Profile: "SCHEMATIC1-e1"  [ F:\2) Second Year 2020-2021\Fall semester 2020-2021\EEE1024 Fundamentals of Electrical and Electronic


 ****     INITIAL TRANSIENT SOLUTION       TEMPERATURE =   27.000 DEG C


******************************************************************************



 NODE   VOLTAGE     NODE   VOLTAGE     NODE   VOLTAGE     NODE   VOLTAGE


(N00155)-2.956E-21 (N00169)-34.62E-21 (N00179)-34.62E-21 (N00299)-2.275E-21 




    VOLTAGE SOURCE CURRENTS
    NAME         CURRENT

    V_V1         0.000E+00

    TOTAL POWER DISSIPATION   0.00E+00  WATTS



          JOB CONCLUDED

**** 10/29/20 13:01:07 ****** PSpice Lite (October 2012) ****** ID# 10813 ****

 ** Profile: "SCHEMATIC1-e1"  [ F:\2) Second Year 2020-2021\Fall semester 2020-2021\EEE1024 Fundamentals of Electrical and Electronic


 ****     JOB STATISTICS SUMMARY


******************************************************************************



  Total job time (using Solver 1)   =        0.00
