
**** 10/29/20 12:54:19 ****** PSpice Lite (October 2012) ****** ID# 10813 ****

 ** Profile: "SCHEMATIC1-e1"  [ F:\2) Second Year 2020-2021\Fall semester 2020-2021\EEE1024 Fundamentals of Electrical and Electronic


 ****     CIRCUIT DESCRIPTION


******************************************************************************




** Creating circuit file "e1.cir" 
** WARNING: THIS AUTOMATICALLY GENERATED FILE MAY BE OVERWRITTEN BY SUBSEQUENT SIMULATIONS

*Libraries: 
* Profile Libraries :
* Local Libraries :
* From [PSPICE NETLIST] section of C:\Users\Prashanth\AppData\Roaming\SPB_16.6\cdssetup\OrCAD_PSpice/16.6.0/PSpice.ini file:
.lib "nomd.lib" 

*Analysis directives: 
.TRAN  0 100ms 0 
.OPTIONS ADVCONV
.PROBE64 V(alias(*)) I(alias(*)) W(alias(*)) D(alias(*)) NOISE(alias(*)) 
.INC "..\SCHEMATIC1.net" 



**** INCLUDING SCHEMATIC1.net ****
* source DESIGN OF REGULATED POWER SUPPLY
D_D1         N00169 N00155 D1N4002 
D_D3         0 N00169 D1N4002 
D_D2         N00169 N00155 D1N4002 
D_D4         0 N00169 D1N4002 
D_D5         0 N00299 D1N750 
C_C1         0 N00299  470u  TC=0,0 
R_R1         N00155 N00299  330 TC=0,0 
R_R2         0 N00299  1k TC=0,0 
V_V1         N00169 N00169  AC 0
+SIN 0 30 50 0 0 0

**** RESUMING e1.cir ****
.END

ERROR(ORPSIM-15143): Voltage source and/or inductor loop involving V_V1. You may break the loop by adding a series resistance
