
**** 10/29/20 16:11:39 ****** PSpice Lite (October 2012) ****** ID# 10813 ****

 ** Profile: "SCHEMATIC1-g"  [ F:\2) Second Year 2020-2021\Fall semester 2020-2021\EEE1024 Fundamentals of Electrical and Electronics


 ****     CIRCUIT DESCRIPTION


******************************************************************************




** Creating circuit file "g.cir" 
** WARNING: THIS AUTOMATICALLY GENERATED FILE MAY BE OVERWRITTEN BY SUBSEQUENT SIMULATIONS

*Libraries: 
* Profile Libraries :
* Local Libraries :
* From [PSPICE NETLIST] section of C:\Users\Prashanth\AppData\Roaming\SPB_16.6\cdssetup\OrCAD_PSpice/16.6.0/PSpice.ini file:
.lib "nomd.lib" 

*Analysis directives: 
.TRAN  0 40ms 0 
.OPTIONS ADVCONV
.PROBE64 V(alias(*)) I(alias(*)) W(alias(*)) D(alias(*)) NOISE(alias(*)) 
.INC "..\SCHEMATIC1.net" 



**** INCLUDING SCHEMATIC1.net ****
* source HALF-WAY RECTIFIER
R_R1         0 N02510  1k TC=0,0 
D_D1         N02486 N02510 D1N4002 
V_V1         N02486 0  AC <AC>
---------------------------$
ERROR(ORPSIM-16492): Missing value
+SIN 0 10 50 0 0 0

**** RESUMING g.cir ****
.END
