
**** 10/29/20 19:50:50 ****** PSpice Lite (October 2012) ****** ID# 10813 ****

 ** Profile: "SCHEMATIC1-r2"  [ F:\2) Second Year 2020-2021\Fall semester 2020-2021\EEE1024 Fundamentals of Electrical and Electronic


 ****     CIRCUIT DESCRIPTION


******************************************************************************




** Creating circuit file "r2.cir" 
** WARNING: THIS AUTOMATICALLY GENERATED FILE MAY BE OVERWRITTEN BY SUBSEQUENT SIMULATIONS

*Libraries: 
* Profile Libraries :
* Local Libraries :
* From [PSPICE NETLIST] section of C:\Users\Prashanth\AppData\Roaming\SPB_16.6\cdssetup\OrCAD_PSpice/16.6.0/PSpice.ini file:
.lib "nomd.lib" 

*Analysis directives: 
.TRAN  0 4ms 0 
.OPTIONS ADVCONV
.PROBE64 V(alias(*)) I(alias(*)) W(alias(*)) D(alias(*)) NOISE(alias(*)) 
.INC "..\SCHEMATIC1.net" 



**** INCLUDING SCHEMATIC1.net ****
* source HALF ADDER
U_A         STIM(1,1) $G_DPWR $G_DGND N00252 IO_STM IO_LEVEL=0 
+ 0 0
+ +.5mS 1
+REPEAT FOREVER
+ +.5mS 0
+  +.5mS 1
+ ENDREPEAT
U_B         STIM(1,1) $G_DPWR $G_DGND N00288 IO_STM IO_LEVEL=0 
+ 0 0
+ +1ms 1
+REPEAT FOREVER
+ +1ms 0
+  +1ms 1
+ ENDREPEAT
X_U1A         N00252 N00288 N00345 $G_DPWR $G_DGND 7486 PARAMS:
+ IO_LEVEL=0 MNTYMXDLY=0
X_U2A         N00252 N00288 N00349 $G_DPWR $G_DGND 7408 PARAMS:
+ IO_LEVEL=0 MNTYMXDLY=0

**** RESUMING r2.cir ****
.END

**** 10/29/20 19:50:50 ****** PSpice Lite (October 2012) ****** ID# 10813 ****

 ** Profile: "SCHEMATIC1-r2"  [ F:\2) Second Year 2020-2021\Fall semester 2020-2021\EEE1024 Fundamentals of Electrical and Electronic


 ****     Digital Gate MODEL PARAMETERS


******************************************************************************




               D0_GATE         D_86_1          D_86_2          D_86_3          
      TPLHMN    0               3.600000E-09    4.800000E-09    2.400000E-09 
      TPLHTY    0               9.000000E-09   12.000000E-09    6.000000E-09 
      TPLHMX    0              17.000000E-09   24.000000E-09    6.000000E-09 
      TPHLMN    0               2.000000E-09    2.800000E-09    2.400000E-09 
      TPHLTY    0               5.000000E-09    7.000000E-09    6.000000E-09 
      TPHLMX    0              11.000000E-09   16.000000E-09    6.000000E-09 


               D_08            
      TPLHMN    7.000000E-09 
      TPLHTY   17.500000E-09 
      TPLHMX   27.000000E-09 
      TPHLMN    4.800000E-09 
      TPHLTY   12.000000E-09 
      TPHLMX   19.000000E-09 


**** 10/29/20 19:50:50 ****** PSpice Lite (October 2012) ****** ID# 10813 ****

 ** Profile: "SCHEMATIC1-r2"  [ F:\2) Second Year 2020-2021\Fall semester 2020-2021\EEE1024 Fundamentals of Electrical and Electronic


 ****     Digital IO  MODEL PARAMETERS


******************************************************************************




               IO_STM          IO_STD          
        DRVL    0             104            
        DRVH    0              96.4          
       AtoD1                 AtoD_STD        
       AtoD2                 AtoD_STD_NX     
       AtoD3                 AtoD_STD        
       AtoD4                 AtoD_STD_NX     
       DtoA1 DtoA_STM        DtoA_STD        
       DtoA2 DtoA_STM        DtoA_STD        
       DtoA3 DtoA_STM        DtoA_STD        
       DtoA4 DtoA_STM        DtoA_STD        
      TSWHL1                    1.373000E-09 
      TSWHL2                    1.346000E-09 
      TSWHL3                    1.511000E-09 
      TSWHL4                    1.487000E-09 
      TSWLH1                    3.382000E-09 
      TSWLH2                    3.424000E-09 
      TSWLH3                    3.517000E-09 
      TSWLH4                    3.564000E-09 
       TPWRT  100.000000E+03  100.000000E+03 



          JOB CONCLUDED

**** 10/29/20 19:50:50 ****** PSpice Lite (October 2012) ****** ID# 10813 ****

 ** Profile: "SCHEMATIC1-r2"  [ F:\2) Second Year 2020-2021\Fall semester 2020-2021\EEE1024 Fundamentals of Electrical and Electronic


 ****     JOB STATISTICS SUMMARY


******************************************************************************



  Total job time                    =        0.00
